<?xml version="1.0" encoding="UTF-8"?>

<!-- generated on 2026-02-19T15:39:13.626077+00:00 by Eclipse SUMO netedit v1_25_0+0923-4ecd63a3490
<neteditConfiguration xmlns:xsi="http://www.w3.org/2001/XMLSchema-instance" xsi:noNamespaceSchemaLocation="http://sumo.dlr.de/xsd/neteditConfiguration.xsd">

    <input>
        <additional-files value="/home/michael/NewcastleSim/scenarios/station_concordia/geometry/monument/level_0.xml"/>
        <sumo-net-file value="/home/michael/NewcastleSim/scenarios/station_concordia/geometry/monument/network.net.xml"/>
    </input>

    <output>
        <output-file value="/home/michael/NewcastleSim/scenarios/station_concordia/geometry/monument/network.net.xml"/>
    </output>

    <processing>
        <offset.disable-normalization value="true"/>
    </processing>

    <junctions>
        <no-turnarounds value="true"/>
    </junctions>

    <netedit>
        <new-network value="false"/>
    </netedit>

</neteditConfiguration>
-->

<net version="1.20" junctionCornerDetail="5" limitTurnSpeed="5.50" xmlns:xsi="http://www.w3.org/2001/XMLSchema-instance" xsi:noNamespaceSchemaLocation="http://sumo.dlr.de/xsd/net_file.xsd">

    <location netOffset="0.00,0.00" convBoundary="10000000000.00,10000000000.00,-10000000000.00,-10000000000.00" origBoundary="10000000000.00,10000000000.00,-10000000000.00,-10000000000.00" projParameter="!"/>



</net>
